test/data/opendss/test2_linecodes.dss
New Linecode.lc1 nphases=1  Units=km
~ Rmatrix=[1.50000  ]
~ Xmatrix=[0.00000  ]
~ Cmatrix=[6.25000  ]

New Linecode.lc/2 nphases=3  Units=km
~ Rmatrix=[1.5000  |0.200000  1.50000  |0.250000  0.25000  2.00000  ]
~ Xmatrix=[1.0000  |0.500000  0.50000  |0.500000  0.50000  1.000000  ]
~ Cmatrix=[8.0000  |-2.00000  9.000000  |-1.75000  -2.50000  8.00000  ]

New Linecode.lc3         nphases=1 r1=0.950000 x1=0.550000 r0=1.000000 x0=0.500000  c1=30.0000000000000  c0=30.0000000000000  units=km baseFreq=60 normamps=250  emergamps=250  faultrate=0.1 pctperm=25 repair=2
New "LineCode.LC4" nphases=3 baseFreq=60 rmatrix=[  0.10000000   0.03333333   0.03333333 |  0.03333333   0.10000000   0.03333333 |  0.03333333   0.03333333   0.10000000 ] xmatrix=[  0.25000000   0.10000000   0.07500000 |  0.10000000   0.25000000   0.10000000 |  0.07500000   0.10000000   0.25000000 ] cmatrix=[  3.00000000  -1.00000000  -0.50000000 | -1.00000000   3.00000000  -0.50000000 | -0.50000000  -0.50000000   3.00000000 ]
New "LineCode.lc5" nphases=1 baseFreq=60 rmatrix=[  0.25000000 ] xmatrix=[  0.25000000 ] cmatrix=[  3.00000000 ]

New linecode.lc6 nphases=3 BaseFreq=60
!!!~ rmatrix = (0.000000 | 0.0000000 0.1000000 | 0.0000000 0.0500000 0.1000000 )
!!!~ xmatrix = (0.25000 | 0.0935314 0.250000 | 0.0750000 0.1000000 0.250000 )
!!!~ cmatrix = (3.00000 | -1.000000 3.12500 | -0.25000 -0.500000 4.0000 )
~ rmatrix = [0.100000000 | 0.033333333 0.099999999 | 0.03333333 0.030000000 0.100000000]
~ xmatrix = [0.250000000 | 0.095555556 0.123456789 | 0.075000000 0.100000000 0.200000000]
~ cmatrix = [3.000000000 | -0.999999999  3.000000000 | -0.555555556  -0.750000000 3.00000000]

New Linecode.lc7 nphases=2 units=kft      !ohms per 1000 ft
~ rmatrix=[  0.50000000   0.12500000 |  0.12500000   0.50000000 ]
~ xmatrix=[  0.25000000   0.00000000 |  0.00000000   0.00000000 ]
~ cmatrix=[  5.00000000  -2.50000000 | -2.50000000   5.00000000 ]
~ Normamps=250  {250 5.0 *}

New Linecode.lc8 nphases=3 units=km b1=(3.4 2 pi 60.0 * * *)

New Linecode.lc9 nphases=3 b1=(3.4 2 pi 60.0 * * *) b0=(1.6 2 pi 60 * * *)